reduced_networks/case69/77pct/case69_reduced.m
%% case69_reduced -- Opti-KRON reduction of case69
%
%   69 buses reduced to 16 super-nodes (76.8% reduction), 15 branches.
%   Loads are scenario 1 of 1.
%
%   Equivalent branches come from the Kron-reduced admittance matrix, so a
%   negative resistance is possible and is not an error -- an equivalent
%   branch stands in for eliminated network, not for a conductor.
%
%   Bus map -- each super-node and the original buses it represents:
%     1 <- 1 2
%     3 <- 3 4 5 28 29 30 31 32 33 34 35 36 47 48 49 50
%     6 <- 6
%     7 <- 7 8 51 52
%     9 <- 9
%     10 <- 10 11 12 66 67 68 69
%     13 <- 13 14
%     15 <- 15 16 17 18 19 20 21
%     22 <- 22 23 24 25 26 27
%     37 <- 37 38 39 40 41 42 43 44 45 46
%     53 <- 53 54
%     55 <- 55 56
%     57 <- 57
%     58 <- 58 59
%     60 <- 60
%     61 <- 61 62 63 64 65

function mpc = case69_reduced
mpc.version = '2';
mpc.baseMVA = 1;

%% bus data
%	bus_i	type	Pd	Qd	Gs	Bs	area	Vm	Va	baseKV	zone	Vmax	Vmin
mpc.bus = [
	1	3	-0	-0	0	5.4569682106375694e-12	1	1	0	1	1	1.1	0.9;
	3	1	0.096589999999999995	0.068920000000000009	-6.0579306460418545e-13	3.9652001998172507e-12	1	1	0	1	1	1.1	0.9;
	6	1	0.00025999999999999998	0.00022000000000000001	4.8707480181630441e-14	2.6865663966981193e-14	1	1	0	1	1	1.1	0.9;
	7	1	0.015949999999999999	0.0115	-2.6211363052841094e-13	-8.6524686573502101e-14	1	1	0	1	1	1.1	0.9;
	9	1	0.0030000000000000001	0.0021999999999999997	-5.4001247917767614e-13	-1.4210854715202004e-13	1	1	0	1	1	1.1	0.9;
	10	1	0.040999999999999995	0.0293	4.0561519461825403e-13	1.1064352393597292e-12	1	1	0	1	1	1.1	0.9;
	13	1	0.0016000000000000001	0.0010999999999999998	6.2924257236577763e-13	6.361020969918448e-13	1	1	0	1	1	1.1	0.9;
	15	1	0.028050000000000002	0.018160000000000003	1.064632045781596e-12	2.0437226871039914e-12	1	1	0	1	1	1.1	0.9;
	22	1	0.00613	0.0043499999999999997	-3.6573574876206644e-12	4.8932408462934363e-12	1	1	0	1	1	1.1	0.9;
	37	1	0.015960000000000002	0.011050000000000001	-5.978920090591371e-13	7.1406703269811403e-12	1	1	0	1	1	1.1	0.9;
	53	1	0.0030699999999999998	0.0022499999999999998	-2.8066442734929038e-14	-1.5397413911255068e-14	1	1	0	1	1	1.1	0.9;
	55	1	0.0024000000000000002	0.00172	2.7844434722453699e-14	-5.8502475771769223e-14	1	1	0	1	1	1.1	0.9;
	57	1	-0	-0	9.4159860807532148e-15	-7.3308570095172494e-15	1	1	0	1	1	1.1	0.9;
	58	1	0.01	0.0071999999999999998	-1.6789475454109408e-14	-1.4621647668287437e-14	1	1	0	1	1	1.1	0.9;
	60	1	-0	-0	-1.0658141036401503e-14	-1.2434497875801753e-14	1	1	0	1	1	1.1	0.9;
	61	1	0.15619999999999998	0.1115	3.1263880373444408e-13	3.730349362740526e-14	1	1	0	1	1	1.1	0.9;
];

%% generator data
%	bus	Pg	Qg	Qmax	Qmin	Vg	mBase	status	Pmax	Pmin
mpc.gen = [
	1	0	0	9999	-9999	1	1	1	9999	-9999;
];

%% branch data
%	fbus	tbus	r	x	b	rateA	rateB	rateC	ratio	angle	status	angmin	angmax
mpc.branch = [
	1	3	6.2392528869023047e-05	0.00014974206928565541	0	0	0	0	0	0	1	-360	360;
	3	6	0.024495306833978433	0.013688920833863683	0	0	0	0	0	0	1	-360	360;
	3	37	0.0042676489746411419	0.01043827007978735	0	0	0	0	0	0	1	-360	360;
	6	7	0.023771553499097802	0.012110389853477383	0	0	0	0	0	0	1	-360	360;
	7	9	0.0088285428349667659	0.0044985013314565656	0	0	0	0	0	0	1	-360	360;
	9	10	0.051099481143730016	0.016889657564844219	0	0	0	0	0	0	1	-360	360;
	9	53	0.01085630002321002	0.0055279780577954466	0	0	0	0	0	0	1	-360	360;
	10	13	0.12033023117679753	0.039744040889571418	0	0	0	0	0	0	1	-360	360;
	13	15	0.13114909568268457	0.043025887908083933	0	0	0	0	0	0	1	-360	360;
	15	22	0.091685821173030382	0.030272855007250511	0	0	0	0	0	0	1	-360	360;
	53	55	0.030397640064988057	0.015479586412404633	0	0	0	0	0	0	1	-360	360;
	55	57	0.11675513927260305	0.042239742044328649	0	0	0	0	0	0	1	-360	360;
	57	58	0.048897024874653403	0.016409235092553081	0	0	0	0	0	0	1	-360	360;
	58	60	0.043069562678286641	0.013589092787673215	0	0	0	0	0	0	1	-360	360;
	60	61	0.031664208401029223	0.016128468712642473	0	0	0	0	0	0	1	-360	360;
];
